/*--------------------------------*- C++ -*----------------------------------*\
  =========                 |
  \\      /  F ield         | OpenFOAM: The Open Source CFD Toolbox
   \\    /   O peration     | Website:  https://openfoam.org
    \\  /    A nd           | Version:  6
     \\/     M anipulation  |
\*---------------------------------------------------------------------------*/
FoamFile
{
    version     2.0;
    format      ascii;
    class       pointVectorField;
    location    "0";
    object      solvedW;
}
// * * * * * * * * * * * * * * * * * * * * * * * * * * * * * * * * * * * * * //

dimensions      [0 1 -1 0 0 0 0];

internalField   uniform (0 0 0);

boundaryField
{
    roller_symmetricX { type fixedNormalSlip; n (0 0 0); }
    roller_symmetricY { type fixedNormalSlip; n (0 0 0); }
    roller_symmetricZ { type fixedNormalSlip; n (0 0 0); } 
    free              { type fixedNormalSlip; n (0 0 0); } 
}

// ************************************************************************* //
