/*--------------------------------*- C++ -*----------------------------------*\
  =========                 |
  \\      /  F ield         | OpenFOAM: The Open Source CFD Toolbox
   \\    /   O peration     | Website:  https://openfoam.org
    \\  /    A nd           | Version:  6
     \\/     M anipulation  |
\*---------------------------------------------------------------------------*/
FoamFile
{
    version     2.0;
    format      ascii;
    class       polyBoundaryMesh;
    location    "constant/polyMesh";
    object      boundary;
}
// * * * * * * * * * * * * * * * * * * * * * * * * * * * * * * * * * * * * * //

3
(
    free
    {
        type            patch;
        physicalType    patch;
        nFaces          12288;
        startFace       288256;
    }
    fixed
    {
        type            patch;
        physicalType    patch;
        nFaces          512;
        startFace       300544;
    }
    traction
    {
        type            patch;
        physicalType    patch;
        nFaces          512;
        startFace       301056;
    }
)

// ************************************************************************* //
