/*--------------------------------*- C++ -*----------------------------------*\
  =========                 |
  \\      /  F ield         | OpenFOAM: The Open Source CFD Toolbox
   \\    /   O peration     | Website:  https://openfoam.org
    \\  /    A nd           | Version:  6
     \\/     M anipulation  |
\*---------------------------------------------------------------------------*/
FoamFile
{
    version     2.0;
    format      ascii;
    class       polyBoundaryMesh;
    location    "constant/polyMesh";
    object      boundary;
}
// * * * * * * * * * * * * * * * * * * * * * * * * * * * * * * * * * * * * * //

4
(
    roller_symmetricY
    {
        type            patch;
        physicalType    patch;
        nFaces          24;
        startFace       5256;
    }
    roller_symmetricZ
    {
        type            patch;
        physicalType    patch;
        nFaces          320;
        startFace       5280;
    }
    roller_symmetricX
    {
        type            patch;
        physicalType    patch;
        nFaces          320;
        startFace       5600;
    }
    free
    {
        type            patch;
        physicalType    patch;
        nFaces          344;
        startFace       5920;
    }
)

// ************************************************************************* //
