/*--------------------------------*- C++ -*----------------------------------*\
  =========                 |
  \\      /  F ield         | OpenFOAM: The Open Source CFD Toolbox
   \\    /   O peration     | Website:  https://openfoam.org
    \\  /    A nd           | Version:  6
     \\/     M anipulation  |
\*---------------------------------------------------------------------------*/
FoamFile
{
    version     2.0;
    format      ascii;
    class       polyBoundaryMesh;
    location    "constant/polyMesh";
    object      boundary;
}
// * * * * * * * * * * * * * * * * * * * * * * * * * * * * * * * * * * * * * //

4
(
    roller_symmetricY
    {
        type            patch;
        physicalType    patch;
        nFaces          12;
        startFace       1188;
    }
    roller_symmetricZ
    {
        type            patch;
        physicalType    patch;
        nFaces          160;
        startFace       1200;
    }
    roller_symmetricX
    {
        type            patch;
        physicalType    patch;
        nFaces          160;
        startFace       1360;
    }
    free
    {
        type            patch;
        physicalType    patch;
        nFaces          172;
        startFace       1520;
    }
)

// ************************************************************************* //
