/*--------------------------------*- C++ -*----------------------------------*\
  =========                 |
  \\      /  F ield         | OpenFOAM: The Open Source CFD Toolbox
   \\    /   O peration     | Website:  https://openfoam.org
    \\  /    A nd           | Version:  6
     \\/     M anipulation  |
\*---------------------------------------------------------------------------*/
FoamFile
{
    version     2.0;
    format      ascii;
    class       polyBoundaryMesh;
    location    "constant/polyMesh";
    object      boundary;
}
// * * * * * * * * * * * * * * * * * * * * * * * * * * * * * * * * * * * * * //

3
(
    free
    {
        type            patch;
        physicalType    patch;
        nFaces          768;
        startFace       4192;
    }
    bottom
    {
        type            patch;
        physicalType    patch;
        nFaces          32;
        startFace       4960;
    }
    traction
    {
        type            patch;
        physicalType    patch;
        nFaces          32;
        startFace       4992;
    }
)

// ************************************************************************* //
