FoamFile
{
    version     2.0;
    format      ascii;
    class       dictionary;
    location    "system";
    object      preciceDict;
}

preciceConfig "precice-config.xml";

participant Solid;

modules (FSI);

interfaces
{
  Interface1
  {
    mesh              Solid-Mesh-Nodes;
    patches           (free_interface);
    locations         faceNodes;
    
    readData ( Forces );
    
    writeData ( Displacements ); 
  };
};

FSI
{
  solverType incompressible;
  namePointDisplacement uD;
  rho rho [1 -3 0 0 0 0 0] 1100;
}
