/*--------------------------------*- C++ -*----------------------------------*\
  =========                 |
  \\      /  F ield         | OpenFOAM: The Open Source CFD Toolbox
   \\    /   O peration     | Website:  https://openfoam.org
    \\  /    A nd           | Version:  6
     \\/     M anipulation  |
\*---------------------------------------------------------------------------*/
FoamFile
{
    version     2.0;
    format      ascii;
    class       polyBoundaryMesh;
    location    "constant/polyMesh";
    object      boundary;
}
// * * * * * * * * * * * * * * * * * * * * * * * * * * * * * * * * * * * * * //

3
(
    free
    {
        type            patch;
        physicalType    patch;
        nFaces          3072;
        startFace       35200;
    }
    fixed
    {
        type            patch;
        physicalType    patch;
        nFaces          128;
        startFace       38272;
    }
    traction
    {
        type            patch;
        physicalType    patch;
        nFaces          128;
        startFace       38400;
    }
)

// ************************************************************************* //
