/*--------------------------------*- C++ -*----------------------------------*\
  =========                 |
  \\      /  F ield         | OpenFOAM: The Open Source CFD Toolbox
   \\    /   O peration     | Website:  https://openfoam.org
    \\  /    A nd           | Version:  6
     \\/     M anipulation  |
\*---------------------------------------------------------------------------*/
FoamFile
{
    version     2.0;
    format      ascii;
    class       dictionary;
    location    "constant";
    object      mechanicalProperties;
}
// * * * * * * * * * * * * * * * * * * * * * * * * * * * * * * * * * * * * * //

rho             rho [1 -3 0 0 0 0 0]  1100;
E               E   [1 -1 -2 0 0 0 0] 17e6;
nu              nu  [0 0 0 0 0 0 0]   0.495;

PHatTerm        withoutInvolution;
GCLtechnique    withoutInvolution;
doPostPro       activated;
usePstar        true;
alpha           0.0;
updateEvery     1;

materialModel{
    aleModel neoHookean;
    neoHookeanDict{
        fictitiousMotionType    sinusoid_order2inTime;
        beta                    0.0;
        T                       1.0;
    }
}

spatialModel{
    aleModel neoHookean;
    neoHookeanDict{
        fictitiousMotionType    sinusoid_order2inTime;
        beta                    0.0;
        T                       1.0;
    }
}

solidModel{
   solidModel neoHookean;
}

// ************************************************************************* //
