/*--------------------------------*- C++ -*----------------------------------*\
  =========                 |
  \\      /  F ield         | OpenFOAM: The Open Source CFD Toolbox
   \\    /   O peration     | Website:  https://openfoam.org
    \\  /    A nd           | Version:  6
     \\/     M anipulation  |
\*---------------------------------------------------------------------------*/
FoamFile
{
    version     2.0;
    format      ascii;
    class       dictionary;
    location    "constant";
    object      mechanicalProperties;
}
// * * * * * * * * * * * * * * * * * * * * * * * * * * * * * * * * * * * * * //

PHatTerm        withoutInvolution;
GCLtechnique    withoutInvolution;
doPostPro       activated;
usePstar        true;
alpha           0.0; //alpha [0 0 0 0 0 0 0] 1.0;
updateEvery	1;

rho             rho [1 -3 0 0 0 0 0]  8930;
E               E   [1 -1 -2 0 0 0 0] 177e9;
nu              nu  [0 0 0 0 0 0 0]   0.35;

materialModel{
    aleModel neoHookean;
    neoHookeanDict{
        fictitiousMotionType    sinusoid_order2inTime;
        beta                    0.0;
        T                       1.0;
    }
}

spatialModel{
    aleModel neoHookean;
    neoHookeanDict{
        fictitiousMotionType    sinusoid_order2inTime;
        beta                    0.0;
        T                       1.0;
    }
}

solidModel{
   //solidModel neoHookean;

   solidModel vonMises;
   vonMisesDict{
        Hm      Hm  [1 -1 -2 0 0 0 0] 0.1e9;
        Ys      Ys  [0 -1 -2 0 0 0 0] 0.4e9;

}


// ************************************************************************* //
